Version 4
SHEET 1 880 680
WIRE 416 -80 -64 -80
WIRE -64 16 -64 -80
WIRE 208 16 128 16
WIRE 320 16 288 16
WIRE 496 16 320 16
WIRE 624 16 576 16
WIRE 416 80 416 -80
WIRE 320 96 320 16
WIRE 384 96 320 96
WIRE -64 112 -64 96
WIRE -64 112 -144 112
WIRE 624 112 624 16
WIRE 624 112 448 112
WIRE -64 128 -64 112
WIRE 128 128 128 16
WIRE 208 128 128 128
WIRE 320 128 272 128
WIRE 384 128 320 128
WIRE 128 144 128 128
WIRE -144 160 -144 112
WIRE 320 176 320 128
WIRE -64 272 -64 208
WIRE 416 272 416 144
WIRE 416 272 -64 272
WIRE 128 320 128 224
WIRE 224 320 128 320
WIRE 320 320 320 256
WIRE 320 320 224 320
WIRE 224 352 224 320
FLAG -144 160 0
FLAG 224 352 0
SYMBOL Opamps\\LT1001 416 48 R0
SYMATTR InstName U1
SYMBOL voltage -64 0 R0
WINDOW 123 0 0 Left 2
WINDOW 39 0 0 Left 2
SYMATTR InstName V1
SYMATTR Value 10
SYMBOL voltage -64 112 R0
WINDOW 123 0 0 Left 2
WINDOW 39 0 0 Left 2
SYMATTR InstName V2
SYMATTR Value 10
SYMBOL res 304 160 R0
SYMATTR InstName R1
SYMATTR Value {R}
SYMBOL cap 272 112 R90
WINDOW 0 0 32 VBottom 2
WINDOW 3 32 32 VTop 2
SYMATTR InstName C1
SYMATTR Value 100nF
SYMBOL res 304 0 R90
WINDOW 0 0 56 VBottom 2
WINDOW 3 32 56 VTop 2
SYMATTR InstName R2
SYMATTR Value 1K
SYMBOL res 592 0 R90
WINDOW 0 0 56 VBottom 2
WINDOW 3 32 56 VTop 2
SYMATTR InstName R3
SYMATTR Value 1K
SYMBOL voltage 128 128 R0
WINDOW 123 0 0 Left 2
WINDOW 39 0 0 Left 2
SYMATTR InstName V3
SYMATTR Value SINE(0 1 1000)
TEXT -208 384 Left 2 !.tran 0 0.01 0
TEXT -208 408 Left 2 !.step param R 1 10000 500
