Version 4
SHEET 1 1400 816
WIRE 816 -432 640 -432
WIRE 736 -336 736 -384
WIRE 640 -320 640 -432
WIRE 704 -320 640 -320
WIRE 816 -320 816 -432
WIRE 912 -320 816 -320
WIRE 1056 -320 992 -320
WIRE 1152 -320 1056 -320
WIRE 1232 -320 1216 -320
WIRE 1392 -320 1232 -320
WIRE 816 -304 816 -320
WIRE 816 -304 768 -304
WIRE 704 -288 640 -288
WIRE -176 -272 -496 -272
WIRE 1056 -256 1056 -320
WIRE 1296 -256 1056 -256
WIRE 640 -240 640 -288
WIRE 640 -240 96 -240
WIRE -496 -224 -496 -272
WIRE 1296 -224 1296 -256
WIRE 736 -208 736 -272
WIRE 1168 -128 1168 -176
WIRE -352 -112 -352 -160
WIRE 1056 -112 1056 -256
WIRE 1136 -112 1056 -112
WIRE -496 -96 -496 -144
WIRE -384 -96 -496 -96
WIRE 192 -96 192 -144
WIRE 816 -96 816 -304
WIRE 1296 -96 1296 -160
WIRE 1296 -96 1200 -96
WIRE 1392 -96 1392 -320
WIRE 1392 -96 1296 -96
WIRE -176 -80 -176 -272
WIRE -176 -80 -320 -80
WIRE 96 -80 96 -240
WIRE 160 -80 96 -80
WIRE 1136 -80 944 -80
WIRE 1152 -80 1136 -80
WIRE -384 -64 -944 -64
WIRE 384 -64 224 -64
WIRE 512 -64 448 -64
WIRE -176 -48 -176 -80
WIRE 160 -48 -176 -48
WIRE 512 -48 512 -64
WIRE -944 -16 -944 -64
WIRE 1168 0 1168 -64
WIRE -352 16 -352 -48
WIRE 944 16 944 -80
WIRE 944 16 784 16
WIRE 192 32 192 -32
WIRE 512 48 512 32
WIRE 640 48 640 -240
WIRE 640 48 512 48
WIRE 784 64 784 16
WIRE -496 80 -496 -96
WIRE 512 80 512 48
WIRE 160 112 -96 112
WIRE 272 112 240 112
WIRE -944 128 -944 64
WIRE -224 128 -272 128
WIRE -96 128 -96 112
WIRE -96 128 -144 128
WIRE 48 128 48 80
WIRE -96 144 -96 128
WIRE 16 144 -96 144
WIRE -544 160 -608 160
WIRE 208 160 80 160
WIRE 16 176 -64 176
WIRE 512 176 512 144
WIRE 784 176 784 144
WIRE 208 192 208 160
WIRE 272 192 272 112
WIRE 272 192 208 192
WIRE 1024 192 1024 96
WIRE -768 224 -768 160
WIRE -64 224 -64 176
WIRE -496 240 -496 176
WIRE 48 256 48 192
WIRE -272 304 -272 128
WIRE 1392 304 1392 -96
WIRE 1392 304 -272 304
WIRE -272 320 -272 304
WIRE 1392 336 1392 304
WIRE -768 368 -768 304
WIRE -608 368 -608 160
WIRE 208 368 208 192
WIRE 208 368 -608 368
WIRE -928 448 -928 384
WIRE -928 560 -928 528
WIRE -928 560 -1008 560
WIRE -928 576 -928 560
WIRE -1008 608 -1008 560
WIRE -928 720 -928 656
FLAG -496 240 0
FLAG -944 128 0
FLAG -1008 608 0
FLAG -352 -160 +V
FLAG -928 384 +V
FLAG -352 16 -V
FLAG -928 720 -V
FLAG -768 368 0
FLAG 192 -144 +V
FLAG 192 32 -V
FLAG 512 176 0
FLAG 1168 -176 +V
FLAG 1168 0 -V
FLAG 1024 192 0
FLAG 784 176 0
FLAG 736 -384 +V
FLAG 736 -208 -V
FLAG 48 80 +V
FLAG 48 256 -V
FLAG -64 224 0
SYMBOL Opamps\\OP27 -352 -144 R0
SYMATTR InstName U1
SYMBOL res -512 -240 R0
SYMATTR InstName R1
SYMATTR Value 10K
SYMBOL nmos -544 80 R0
SYMATTR InstName M1
SYMBOL voltage -944 -32 R0
WINDOW 123 0 0 Left 2
WINDOW 39 0 0 Left 2
SYMATTR InstName V1
SYMATTR Value SINE(0 200mV 1KHz)
SYMBOL voltage -928 432 R0
WINDOW 123 0 0 Left 2
WINDOW 39 0 0 Left 2
SYMATTR InstName V2
SYMATTR Value 10
SYMBOL voltage -928 560 R0
WINDOW 123 0 0 Left 2
WINDOW 39 0 0 Left 2
SYMATTR InstName V3
SYMATTR Value 10
SYMBOL voltage -768 208 R0
WINDOW 123 0 0 Left 2
WINDOW 39 0 0 Left 2
SYMATTR InstName V4
SYMATTR Value SINE(5 5 500Hz)
SYMBOL Opamps\\OP27 192 -128 R0
SYMATTR InstName U2
SYMBOL diode 384 -48 R270
WINDOW 0 32 32 VTop 2
WINDOW 3 0 32 VBottom 2
SYMATTR InstName D1
SYMBOL cap 496 80 R0
SYMATTR InstName C1
SYMATTR Value 100pF
SYMBOL Opamps\\OP27 1168 -160 R0
SYMATTR InstName U3
SYMBOL res 496 -64 R0
SYMATTR InstName R2
SYMATTR Value 1Meg
SYMBOL res 1248 -336 R90
WINDOW 0 0 56 VBottom 2
WINDOW 3 32 56 VTop 2
SYMATTR InstName R3
SYMATTR Value 10K
SYMBOL voltage 784 48 R0
WINDOW 123 0 0 Left 2
WINDOW 39 0 0 Left 2
SYMATTR InstName V5
SYMATTR Value 0.5
SYMBOL res 1008 0 R0
SYMATTR InstName R5
SYMATTR Value 1K
SYMBOL cap 1280 -224 R0
SYMATTR InstName C2
SYMATTR Value 100nF
SYMBOL Opamps\\OP27 736 -368 R0
SYMATTR InstName U4
SYMBOL Opamps\\OP27 48 96 R0
SYMATTR InstName U5
SYMBOL res -128 112 R90
WINDOW 0 0 56 VBottom 2
WINDOW 3 32 56 VTop 2
SYMATTR InstName R4
SYMATTR Value 10K
SYMBOL res 256 96 R90
WINDOW 0 0 56 VBottom 2
WINDOW 3 32 56 VTop 2
SYMATTR InstName R6
SYMATTR Value 10K
SYMBOL res 1008 -336 R90
WINDOW 0 0 56 VBottom 2
WINDOW 3 32 56 VTop 2
SYMATTR InstName R7
SYMATTR Value 10K
TEXT -1032 800 Left 2 !.tran 0 500ms 0 1us
