Version 4
SHEET 1 880 680
WIRE 592 -80 -64 -80
WIRE -64 16 -64 -80
WIRE 208 16 128 16
WIRE 320 16 288 16
WIRE 688 16 320 16
WIRE 800 16 768 16
WIRE 592 80 592 -80
WIRE 320 96 320 16
WIRE 560 96 320 96
WIRE -64 112 -64 96
WIRE -64 112 -144 112
WIRE 800 112 800 16
WIRE 800 112 624 112
WIRE -64 128 -64 112
WIRE 128 128 128 16
WIRE 208 128 128 128
WIRE 464 128 272 128
WIRE 560 128 464 128
WIRE 128 144 128 128
WIRE -144 160 -144 112
WIRE 464 176 464 128
WIRE 416 256 272 256
WIRE 272 336 272 256
WIRE -64 480 -64 208
WIRE 592 480 592 144
WIRE 592 480 -64 480
WIRE 128 496 128 224
WIRE 272 496 272 416
WIRE 272 496 128 496
WIRE 464 496 464 272
WIRE 464 496 272 496
WIRE 128 528 128 496
FLAG -144 160 0
FLAG 128 528 0
SYMBOL Opamps\\LT1001 592 48 R0
SYMATTR InstName U1
SYMBOL voltage -64 0 R0
WINDOW 123 0 0 Left 2
WINDOW 39 0 0 Left 2
SYMATTR InstName V1
SYMATTR Value 10
SYMBOL voltage -64 112 R0
WINDOW 123 0 0 Left 2
WINDOW 39 0 0 Left 2
SYMATTR InstName V2
SYMATTR Value 10
SYMBOL cap 272 112 R90
WINDOW 0 0 32 VBottom 2
WINDOW 3 32 32 VTop 2
SYMATTR InstName C1
SYMATTR Value 100nF
SYMBOL res 304 0 R90
WINDOW 0 0 56 VBottom 2
WINDOW 3 32 56 VTop 2
SYMATTR InstName R2
SYMATTR Value 1K
SYMBOL res 784 0 R90
WINDOW 0 0 56 VBottom 2
WINDOW 3 32 56 VTop 2
SYMATTR InstName R3
SYMATTR Value 1K
SYMBOL voltage 128 128 R0
WINDOW 123 0 0 Left 2
WINDOW 39 0 0 Left 2
SYMATTR InstName V3
SYMATTR Value SINE(0 1 1000)
SYMBOL nmos 416 176 R0
SYMATTR InstName M1
SYMBOL voltage 272 320 R0
WINDOW 123 0 0 Left 2
WINDOW 39 0 0 Left 2
SYMATTR InstName V4
SYMATTR Value SINE(5 5 50)
TEXT -208 384 Left 2 !.tran 0 0.03 0
